{
   "completed_at" : "20200207T091421Z",
   "completed_status" : "Success",
   "created_at" : "20171218T054334Z",
   "current_step" : 2,
   "eplusout_err" : "Program Version,EnergyPlus, Version 9.2.0-921312fa1d, YMD=2020.02.07 02:13,\n   ************* Beginning Zone Sizing Calculations\n   ** Warning ** SetUpDesignDay: Entered DesignDay Barometric Pressure=99063 differs by more than 10% from Standard Barometric Pressure=81198.\n   **   ~~~   ** ...occurs in DesignDay=SIZING PERIOD DESIGN DAY 1, Standard Pressure (based on elevation) will be used.\n   ** Warning ** ProcessScheduleInput: Schedule:Day:Interval=\"MEDIUM OFFICE ELECTRIC EQUIPMENT SUMMER DESIGN DAY SCHEDULE\", Blank Schedule Type Limits Name input -- will not be validated.\n   ** Warning ** ProcessScheduleInput: Schedule:Day:Interval=\"MEDIUM OFFICE ELECTRIC EQUIPMENT WINTER DESIGN DAY SCHEDULE\", Blank Schedule Type Limits Name input -- will not be validated.\n   ** Warning ** ProcessScheduleInput: Schedule:Day:Interval=\"MEDIUM OFFICE GAS EQUIPMENT SUMMER DESIGN DAY SCHEDULE\", Blank Schedule Type Limits Name input -- will not be validated.\n   ** Warning ** ProcessScheduleInput: Schedule:Day:Interval=\"MEDIUM OFFICE GAS EQUIPMENT WINTER DESIGN DAY SCHEDULE\", Blank Schedule Type Limits Name input -- will not be validated.\n   ** Warning ** ProcessScheduleInput: Schedule:Day:Interval=\"MEDIUM OFFICE HOT WATER EQUIPMENT SUMMER DESIGN DAY SCHEDULE\", Blank Schedule Type Limits Name input -- will not be validated.\n   ** Warning ** ProcessScheduleInput: Schedule:Day:Interval=\"MEDIUM OFFICE HOT WATER EQUIPMENT WINTER DESIGN DAY SCHEDULE\", Blank Schedule Type Limits Name input -- will not be validated.\n   ** Warning ** ProcessScheduleInput: Schedule:Day:Interval=\"MEDIUM OFFICE INFILTRATION SUMMER DESIGN DAY SCHEDULE\", Blank Schedule Type Limits Name input -- will not be validated.\n   ** Warning ** ProcessScheduleInput: Schedule:Day:Interval=\"MEDIUM OFFICE INFILTRATION WINTER DESIGN DAY SCHEDULE\", Blank Schedule Type Limits Name input -- will not be validated.\n   ** Warning ** ProcessScheduleInput: Schedule:Day:Interval=\"MEDIUM OFFICE LIGHTING SUMMER DESIGN DAY SCHEDULE\", Blank Schedule Type Limits Name input -- will not be validated.\n   ** Warning ** ProcessScheduleInput: Schedule:Day:Interval=\"MEDIUM OFFICE LIGHTING WINTER DESIGN DAY SCHEDULE\", Blank Schedule Type Limits Name input -- will not be validated.\n   ** Warning ** ProcessScheduleInput: Schedule:Day:Interval=\"MEDIUM OFFICE NUMBER OF PEOPLE SUMMER DESIGN DAY SCHEDULE\", Blank Schedule Type Limits Name input -- will not be validated.\n   ** Warning ** ProcessScheduleInput: Schedule:Constant=\"ALWAYS OFF DISCRETE\", Blank Schedule Type Limits Name input -- will not be validated.\n   ** Warning ** ProcessScheduleInput: Schedule:Constant=\"ALWAYS ON CONTINUOUS\", Blank Schedule Type Limits Name input -- will not be validated.\n   ** Warning ** CheckUsedConstructions: There are 4 nominally unused constructions in input.\n   **   ~~~   ** For explicit details on each unused construction, use Output:Diagnostics,DisplayExtraWarnings;\n   ** Warning ** GetDaylightingControls: Fraction of Zone controlled by the Daylighting reference points is < 1.0.\n   **   ~~~   ** ..discovered in \"Daylighting:Controls\" for Zone=\"THERMAL ZONE 1\", only 0.25 of the zone is controlled.\n   ** Warning ** SetUpDesignDay: Entered DesignDay Barometric Pressure=99063 differs by more than 10% from Standard Barometric Pressure=81198.\n   **   ~~~   ** ...occurs in DesignDay=SIZING PERIOD DESIGN DAY 2, Standard Pressure (based on elevation) will be used.\n   ************* Beginning System Sizing Calculations\n   ** Warning ** Since Zone Minimum Air Flow Input Method = CONSTANT, input for Fixed Minimum Air Flow Rate will be ignored.\n   **   ~~~   ** Occurs in AirTerminal:SingleDuct:VAV:Reheat = AIR TERMINAL SINGLE DUCT VAV REHEAT 1\n   ** Warning ** Fan:ZoneExhaust=\"ZONE EXHAUST FAN\" has specified 0.0 max air flow rate. It will not be used in the simulation.\n   ************* Beginning Plant Sizing Calculations\n   ** Warning ** In calculating the design coil UA for Coil:Cooling:Water COIL COOLING WATER 1\n   **   ~~~   ** no apparatus dew-point can be found for the initial entering and leaving conditions;\n   **   ~~~   ** the coil outlet design conditions will be changed to correct the problem.\n   **   ~~~   ** The initial design conditions are: Tair,in = 32.1300\n   **   ~~~   **                                    Wair,in = 1.946389E-002\n   **   ~~~   **                                    Twater,in = 7.2200\n   **   ~~~   **                                    Tair,out = 11.9767\n   **   ~~~   **                                    Wair,out = 8.500000E-003\n   **   ~~~   ** The revised design conditions are: Tair,out = 10.7168\n   **   ~~~   **                                    Wair,out = 9.010102E-003\n   ** Warning ** GetElectricEIRChillerInput: Chiller:Electric:EIR=\"CHILLER ELECTRIC EIR 1\"\n   **   ~~~   ** Energy input ratio as a function of temperature curve output is not equal to 1.0 (+ or - 10%) at reference conditions.\n   **   ~~~   ** Curve output at reference conditions = 0.861\n   ** Warning ** Output:Meter: invalid Key Name=\"DISTRICTCOOLING:FACILITY\" - not found.\n   ** Warning ** Output:Meter: invalid Key Name=\"DISTRICTHEATING:FACILITY\" - not found.\n   ** Warning ** Output:Meter:MeterFileOnly: invalid Key Name=\"PROPANE:FACILITY\" - not found.\n   ** Warning ** Output:Meter:MeterFileOnly requested for \"Electricity:Facility\" (TimeStep), already on \"Output:Meter\". Will report to both eplusout.eso and eplusout.mtr\n   ************* Testing Individual Branch Integrity\n   ************* All Branches passed integrity testing\n   ************* Testing Individual Supply Air Path Integrity\n   ************* All Supply Air Paths passed integrity testing\n   ************* Testing Individual Return Air Path Integrity\n   ************* All Return Air Paths passed integrity testing\n   ************* No node connection errors were found.\n   ************* Beginning Simulation\n   ** Warning ** GetInputEconomicsTariff: UtilityCost:Tariff=\"DISTRICTHEATING TARIFF\" missing meter\n   **   ~~~   ** Meter referenced is not present due to a lack of equipment that uses that energy source/meter:\"DISTRICTHEATING:FACILITY\".\n   ** Warning ** GetInputEconomicsTariff: UtilityCost:Tariff=\"DISTRICTCOOLING TARIFF\" missing meter\n   **   ~~~   ** Meter referenced is not present due to a lack of equipment that uses that energy source/meter:\"DISTRICTCOOLING:FACILITY\".\n   ** Warning ** CalcDoe2DXCoil: Coil:Cooling:DX:SingleSpeed \"COIL COOLING DX SINGLE SPEED 1\" - Full load outlet air dry-bulb temperature < 2C. This indicates the possibility of coil frost/freeze. Outlet temperature = -9.64 C.\n   **   ~~~   **  ...Occurrence info = RUN PERIOD 1, 01/04 22:15 - 22:19\n   **   ~~~   ** ... Possible reasons for low outlet air dry-bulb temperatures are: This DX coil\n   **   ~~~   **    1) may have a low inlet air dry-bulb temperature. Inlet air temperature = 15.702 C.\n   **   ~~~   **    2) may have a low air flow rate per watt of cooling capacity. Check inputs.\n   **   ~~~   **    3) is used as part of a HX assisted cooling coil which uses a high sensible effectiveness. Check inputs.\n   ** Warning ** CalcDoe2DXCoil: Coil:Cooling:DX:SingleSpeed \"COIL COOLING DX SINGLE SPEED 1\" - Air-cooled condenser inlet dry-bulb temperature below 0 C. Outdoor dry-bulb temperature = -3.50\n   **   ~~~   **  ... Occurrence info = RUN PERIOD 1, 01/06 22:15 - 22:19\n   **   ~~~   ** ... Operation at low ambient temperatures may require special performance curves.\n   ** Warning ** Plant Loop: CONDENSER WATER LOOP Demand Side is storing excess heat the majority of the time.\n   ** Warning ** Plant Loop: CONDENSER WATER LOOP Supply Side is storing excess heat the majority of the time.\n   ** Warning ** The resource referenced by LifeCycleCost:UsePriceEscalation= \"U.S. AVG  COMMERCIAL-ELECTRICITY\" has no energy cost. \n   **   ~~~   ** ... It is likely that the wrong resource is used. The resource should match the meter used in Utility:Tariff.\n   ** Warning ** The resource referenced by LifeCycleCost:UsePriceEscalation= \"U.S. AVG  COMMERCIAL-DISTILLATE OIL\" has no energy cost. \n   **   ~~~   ** ... It is likely that the wrong resource is used. The resource should match the meter used in Utility:Tariff.\n   ** Warning ** The resource referenced by LifeCycleCost:UsePriceEscalation= \"U.S. AVG  COMMERCIAL-RESIDUAL OIL\" has no energy cost. \n   **   ~~~   ** ... It is likely that the wrong resource is used. The resource should match the meter used in Utility:Tariff.\n   ** Warning ** The resource referenced by LifeCycleCost:UsePriceEscalation= \"U.S. AVG  COMMERCIAL-COAL\" has no energy cost. \n   **   ~~~   ** ... It is likely that the wrong resource is used. The resource should match the meter used in Utility:Tariff.\n   ************* Simulation Error Summary *************\n   ************* There are 5 unused schedules in input.\n   ************* There are 5 unused week schedules in input.\n   ************* There are 30 unused day schedules in input.\n   ************* Use Output:Diagnostics,DisplayUnusedSchedules; to see them.\n   *************\n   ************* ===== Recurring Error Summary =====\n   ************* The following recurring error messages occurred.\n   *************\n   *************  ** Warning ** CalcDoe2DXCoil: Coil:Cooling:DX:SingleSpeed=\"COIL COOLING DX SINGLE SPEED 1\" - Full load outlet temperature indicates a possibility of frost/freeze error continues. Outlet air temperature statistics follow:\n   *************  **   ~~~   **   This error occurred 4201 total times;\n   *************  **   ~~~   **   during Warmup 0 times;\n   *************  **   ~~~   **   during Sizing 0 times.\n   *************  **   ~~~   **   Max=1.99732  Min=-12.293099\n   *************\n   *************  ** Warning ** CalcDoe2DXCoil: Coil:Cooling:DX:SingleSpeed=\"COIL COOLING DX SINGLE SPEED 1\" - Low condenser dry-bulb temperature error continues...\n   *************  **   ~~~   **   This error occurred 39 total times;\n   *************  **   ~~~   **   during Warmup 0 times;\n   *************  **   ~~~   **   during Sizing 0 times.\n   *************  **   ~~~   **   Max=-0.25 [C]  Min=-7. [C]\n   *************\n   *************\n   ************* ===== Final Error Summary =====\n   ************* The following error categories occurred.  Consider correcting or noting.\n   ************* Nominally Unused Constructions\n   ************* ..The nominally unused constructions warning is provided to alert you to potential conditions that can cause\n   ************* ..extra time during simulation. Each construction is calculated by the algorithm indicated in the HeatBalanceAlgorithm\n   ************* ..object. You may remove the constructions indicated (when you use the DisplayExtraWarnings option).\n   *************\n   ************* EnergyPlus Warmup Error Summary. During Warmup: 0 Warning; 0 Severe Errors.\n   ************* EnergyPlus Sizing Error Summary. During Sizing: 19 Warning; 0 Severe Errors.\n   ************* EnergyPlus Completed Successfully-- 4273 Warning; 0 Severe Errors; Elapsed Time=00hr 00min 10.36sec\n",
   "file_paths" : [
      "/Users/dgoldwas/Documents/GitHub/NREL/OpenStudio-measures/nrel_published/openstudio_results/tests/output/tariff/generated_files",
      "./files",
      "./weather",
      "../../files",
      "../../weather",
      "./"
   ],
   "hash" : "625C40ED",
   "measure_paths" : [ "../../../../" ],
   "seed_file" : "TestOutput.osm",
   "started_at" : "20200207T091340Z",
   "steps" : [
      {
         "arguments" : {},
         "description" : "This measure sets flat rates for electricity, gas, water, district heating, and district cooling.",
         "measure_dir_name" : "tariff_selection_flat",
         "modeler_description" : "Will add the necessary UtilityCost objects into the model.",
         "name" : "Tariff Selection-Flat",
         "result" : {
            "completed_at" : "20200207T091340Z",
            "measure_class_name" : "TariffSelectionFlat",
            "measure_display_name" : "Tariff Selection-Flat",
            "measure_name" : "tariff_selection_flat",
            "measure_taxonomy" : "Economics.Life Cycle Cost Analysis",
            "measure_type" : "EnergyPlusMeasure",
            "measure_uid" : "539c3e8e-6c41-4f50-ac61-6cbbf1ee1b55",
            "measure_version_id" : "07aad2fc-6b92-4927-b295-abcaa46553c7",
            "measure_version_modified" : "20190923T182708Z",
            "measure_xml_checksum" : "FBDC6D11",
            "started_at" : "20200207T091340Z",
            "stderr" : "",
            "stdout" : "",
            "step_errors" : [],
            "step_files" : [],
            "step_final_condition" : "The model finished with 5 tariff objects.",
            "step_info" : [
               "Updating the timesteps per hour in the model from 6 to 4 to be compatible with the demand window length of a QuarterHour"
            ],
            "step_initial_condition" : "The model started with 0 tariff objects.",
            "step_result" : "Success",
            "step_values" : [
               {
                  "name" : "demand_window_length",
                  "value" : "QuarterHour"
               },
               {
                  "name" : "elec_rate",
                  "value" : 0.12
               },
               {
                  "name" : "elec_demand_rate",
                  "value" : 12
               },
               {
                  "name" : "elec_monthly_rate",
                  "value" : 120
               },
               {
                  "name" : "gas_rate",
                  "value" : 0.5
               },
               {
                  "name" : "gas_monthly_rate",
                  "value" : 50
               },
               {
                  "name" : "water_rate",
                  "value" : 0.0050000000000000001
               },
               {
                  "name" : "disthtg_rate",
                  "value" : 0.20000000000000001
               },
               {
                  "name" : "distclg_rate",
                  "value" : 0.20000000000000001
               }
            ],
            "step_warnings" : [ "Test warning for reporting measure." ]
         }
      },
      {
         "arguments" : {
            "reg_monthly_details" : true
         },
         "measure_dir_name" : "openstudio_results",
         "result" : {
            "completed_at" : "20200207T091419Z",
            "measure_class_name" : "OpenStudioResults",
            "measure_display_name" : "OpenStudio Results",
            "measure_name" : "openstudio_results",
            "measure_taxonomy" : "Reporting.QAQC",
            "measure_type" : "ReportingMeasure",
            "measure_uid" : "a25386cd-60e4-46bc-8b11-c755f379d916",
            "measure_version_id" : "e9df8827-787d-4143-ae5d-981299fbcdb7",
            "measure_version_modified" : "20200207T091252Z",
            "measure_xml_checksum" : "557BF06F",
            "started_at" : "20200207T091406Z",
            "stderr" : "",
            "stdout" : "",
            "step_errors" : [],
            "step_files" : [
               "/Users/dgoldwas/Documents/GitHub/NREL/OpenStudio-measures/nrel_published/openstudio_results/tests/output/tariff/run/001_openstudio_results/report.html"
            ],
            "step_final_condition" : "Generated report with 22 sections to ./report.html.",
            "step_info" : [ "Monthly End Use by Fuel registerValues have been requested." ],
            "step_initial_condition" : "Gathering data from EnergyPlus SQL file and OSM model. Will report in IP Units",
            "step_result" : "Success",
            "step_values" : [
               {
                  "name" : "units",
                  "value" : "IP"
               },
               {
                  "name" : "building_summary_section",
                  "value" : true
               },
               {
                  "name" : "annual_overview_section",
                  "value" : true
               },
               {
                  "name" : "monthly_overview_section",
                  "value" : true
               },
               {
                  "name" : "utility_bills_rates_section",
                  "value" : true
               },
               {
                  "name" : "envelope_section_section",
                  "value" : true
               },
               {
                  "name" : "space_type_breakdown_section",
                  "value" : true
               },
               {
                  "name" : "space_type_details_section",
                  "value" : true
               },
               {
                  "name" : "interior_lighting_section",
                  "value" : true
               },
               {
                  "name" : "plug_loads_section",
                  "value" : true
               },
               {
                  "name" : "exterior_light_section",
                  "value" : true
               },
               {
                  "name" : "water_use_section",
                  "value" : true
               },
               {
                  "name" : "hvac_load_profile",
                  "value" : true
               },
               {
                  "name" : "zone_condition_section",
                  "value" : true
               },
               {
                  "name" : "zone_summary_section",
                  "value" : true
               },
               {
                  "name" : "zone_equipment_detail_section",
                  "value" : true
               },
               {
                  "name" : "air_loops_detail_section",
                  "value" : true
               },
               {
                  "name" : "plant_loops_detail_section",
                  "value" : true
               },
               {
                  "name" : "outdoor_air_section",
                  "value" : true
               },
               {
                  "name" : "cost_summary_section",
                  "value" : true
               },
               {
                  "name" : "source_energy_section",
                  "value" : true
               },
               {
                  "name" : "schedules_overview_section",
                  "value" : true
               },
               {
                  "name" : "measure_warning_section",
                  "value" : true
               },
               {
                  "name" : "reg_monthly_details",
                  "value" : true
               },
               {
                  "name" : "standards_gem_version",
                  "value" : "0.2.10"
               },
               {
                  "name" : "workflow_gem_version",
                  "value" : "1.3.4"
               },
               {
                  "display_name" : "Building 1",
                  "name" : "building_name",
                  "value" : "n/a"
               },
               {
                  "name" : "total_site_energy",
                  "units" : "kBtu",
                  "value" : 212576.42374387081
               },
               {
                  "name" : "net_site_energy",
                  "units" : "kBtu",
                  "value" : 212576.42374387081
               },
               {
                  "name" : "total_building_area",
                  "units" : "ft^2",
                  "value" : 4305.5641666838892
               },
               {
                  "name" : "total_site_eui",
                  "units" : "kBtu/ft^2",
                  "value" : 49.372489995334455
               },
               {
                  "name" : "eui",
                  "units" : "kBtu/ft^2",
                  "value" : 49.372489995334455
               },
               {
                  "name" : "unmet_hours_during_heating",
                  "units" : "hr",
                  "value" : 639.75
               },
               {
                  "name" : "unmet_hours_during_cooling",
                  "units" : "hr",
                  "value" : 16.25
               },
               {
                  "name" : "unmet_hours_during_occupied_heating",
                  "units" : "hr",
                  "value" : 588
               },
               {
                  "name" : "unmet_hours_during_occupied_cooling",
                  "units" : "hr",
                  "value" : 16.25
               },
               {
                  "name" : "unmet_hours_tolerance_heating",
                  "units" : "R",
                  "value" : 0.35999999999999999
               },
               {
                  "name" : "unmet_hours_tolerance_cooling",
                  "units" : "R",
                  "value" : 0.35999999999999999
               },
               {
                  "name" : "end_use_heating",
                  "units" : "kBtu",
                  "value" : 99606.101173726522
               },
               {
                  "name" : "end_use_cooling",
                  "units" : "kBtu",
                  "value" : 19961.02855379846
               },
               {
                  "name" : "end_use_interior_lighting",
                  "units" : "kBtu",
                  "value" : 32595.430767574981
               },
               {
                  "name" : "end_use_exterior_lighting",
                  "units" : "kBtu",
                  "value" : 0
               },
               {
                  "name" : "end_use_interior_equipment",
                  "units" : "kBtu",
                  "value" : 28785.205943915447
               },
               {
                  "name" : "end_use_exterior_equipment",
                  "units" : "kBtu",
                  "value" : 0
               },
               {
                  "name" : "end_use_fans",
                  "units" : "kBtu",
                  "value" : 10293.293926602626
               },
               {
                  "name" : "end_use_pumps",
                  "units" : "kBtu",
                  "value" : 14539.514625606287
               },
               {
                  "name" : "end_use_heat_rejection",
                  "units" : "kBtu",
                  "value" : 6786.3705814433515
               },
               {
                  "name" : "end_use_humidification",
                  "units" : "kBtu",
                  "value" : 0
               },
               {
                  "name" : "end_use_heat_recovery",
                  "units" : "kBtu",
                  "value" : 0
               },
               {
                  "name" : "end_use_water_systems",
                  "units" : "kBtu",
                  "value" : 0
               },
               {
                  "name" : "end_use_refrigeration",
                  "units" : "kBtu",
                  "value" : 0
               },
               {
                  "name" : "end_use_generators",
                  "units" : "kBtu",
                  "value" : 0
               },
               {
                  "name" : "fuel_electricity",
                  "units" : "kBtu",
                  "value" : 112970.32257014429
               },
               {
                  "name" : "fuel_natural_gas",
                  "units" : "kBtu",
                  "value" : 99606.101173726522
               },
               {
                  "name" : "fuel_additional_fuel",
                  "units" : "kBtu",
                  "value" : 0
               },
               {
                  "name" : "fuel_district_cooling",
                  "units" : "kBtu",
                  "value" : 0
               },
               {
                  "name" : "fuel_district_heating",
                  "units" : "kBtu",
                  "value" : 0
               },
               {
                  "name" : "end_use_electricity_heating",
                  "units" : "kWh",
                  "value" : 0
               },
               {
                  "name" : "end_use_electricity_cooling",
                  "units" : "kWh",
                  "value" : 5850
               },
               {
                  "name" : "end_use_electricity_interior_lighting",
                  "units" : "kWh",
                  "value" : 9552.7777777777774
               },
               {
                  "name" : "end_use_electricity_exterior_lighting",
                  "units" : "kWh",
                  "value" : 0
               },
               {
                  "name" : "end_use_electricity_interior_equipment",
                  "units" : "kWh",
                  "value" : 8436.1111111111113
               },
               {
                  "name" : "end_use_electricity_exterior_equipment",
                  "units" : "kWh",
                  "value" : 0
               },
               {
                  "name" : "end_use_electricity_fans",
                  "units" : "kWh",
                  "value" : 3016.6666666666665
               },
               {
                  "name" : "end_use_electricity_pumps",
                  "units" : "kWh",
                  "value" : 4261.1111111111113
               },
               {
                  "name" : "end_use_electricity_heat_rejection",
                  "units" : "kWh",
                  "value" : 1988.8888888888891
               },
               {
                  "name" : "end_use_electricity_humidification",
                  "units" : "kWh",
                  "value" : 0
               },
               {
                  "name" : "end_use_electricity_heat_recovery",
                  "units" : "kWh",
                  "value" : 0
               },
               {
                  "name" : "end_use_electricity_water_systems",
                  "units" : "kWh",
                  "value" : 0
               },
               {
                  "name" : "end_use_electricity_refrigeration",
                  "units" : "kWh",
                  "value" : 0
               },
               {
                  "name" : "end_use_electricity_generators",
                  "units" : "kWh",
                  "value" : 0
               },
               {
                  "name" : "end_use_natural_gas_heating",
                  "units" : "therm",
                  "value" : 996.06101173726506
               },
               {
                  "name" : "end_use_natural_gas_cooling",
                  "units" : "therm",
                  "value" : 0
               },
               {
                  "name" : "end_use_natural_gas_interior_lighting",
                  "units" : "therm",
                  "value" : 0
               },
               {
                  "name" : "end_use_natural_gas_exterior_lighting",
                  "units" : "therm",
                  "value" : 0
               },
               {
                  "name" : "end_use_natural_gas_interior_equipment",
                  "units" : "therm",
                  "value" : 0
               },
               {
                  "name" : "end_use_natural_gas_exterior_equipment",
                  "units" : "therm",
                  "value" : 0
               },
               {
                  "name" : "end_use_natural_gas_fans",
                  "units" : "therm",
                  "value" : 0
               },
               {
                  "name" : "end_use_natural_gas_pumps",
                  "units" : "therm",
                  "value" : 0
               },
               {
                  "name" : "end_use_natural_gas_heat_rejection",
                  "units" : "therm",
                  "value" : 0
               },
               {
                  "name" : "end_use_natural_gas_humidification",
                  "units" : "therm",
                  "value" : 0
               },
               {
                  "name" : "end_use_natural_gas_heat_recovery",
                  "units" : "therm",
                  "value" : 0
               },
               {
                  "name" : "end_use_natural_gas_water_systems",
                  "units" : "therm",
                  "value" : 0
               },
               {
                  "name" : "end_use_natural_gas_refrigeration",
                  "units" : "therm",
                  "value" : 0
               },
               {
                  "name" : "end_use_natural_gas_generators",
                  "units" : "therm",
                  "value" : 0
               },
               {
                  "name" : "end_use_electricity_heating_jan",
                  "units" : "kWh",
                  "value" : 0
               },
               {
                  "name" : "end_use_electricity_heating_feb",
                  "units" : "kWh",
                  "value" : 0
               },
               {
                  "name" : "end_use_electricity_heating_mar",
                  "units" : "kWh",
                  "value" : 0
               },
               {
                  "name" : "end_use_electricity_heating_apr",
                  "units" : "kWh",
                  "value" : 0
               },
               {
                  "name" : "end_use_electricity_heating_may",
                  "units" : "kWh",
                  "value" : 0
               },
               {
                  "name" : "end_use_electricity_heating_jun",
                  "units" : "kWh",
                  "value" : 0
               },
               {
                  "name" : "end_use_electricity_heating_jul",
                  "units" : "kWh",
                  "value" : 0
               },
               {
                  "name" : "end_use_electricity_heating_aug",
                  "units" : "kWh",
                  "value" : 0
               },
               {
                  "name" : "end_use_electricity_heating_sep",
                  "units" : "kWh",
                  "value" : 0
               },
               {
                  "name" : "end_use_electricity_heating_oct",
                  "units" : "kWh",
                  "value" : 0
               },
               {
                  "name" : "end_use_electricity_heating_nov",
                  "units" : "kWh",
                  "value" : 0
               },
               {
                  "name" : "end_use_electricity_heating_dec",
                  "units" : "kWh",
                  "value" : 0
               },
               {
                  "name" : "electricity_heating_ip",
                  "units" : "kWh",
                  "value" : 0
               },
               {
                  "name" : "end_use_electricity_cooling_jan",
                  "units" : "kWh",
                  "value" : 254.51388888888889
               },
               {
                  "name" : "end_use_electricity_cooling_feb",
                  "units" : "kWh",
                  "value" : 230.36138888888888
               },
               {
                  "name" : "end_use_electricity_cooling_mar",
                  "units" : "kWh",
                  "value" : 316.34444444444443
               },
               {
                  "name" : "end_use_electricity_cooling_apr",
                  "units" : "kWh",
                  "value" : 371.32777777777778
               },
               {
                  "name" : "end_use_electricity_cooling_may",
                  "units" : "kWh",
                  "value" : 523.86111111111109
               },
               {
                  "name" : "end_use_electricity_cooling_jun",
                  "units" : "kWh",
                  "value" : 770.11111111111109
               },
               {
                  "name" : "end_use_electricity_cooling_jul",
                  "units" : "kWh",
                  "value" : 954.83055555555552
               },
               {
                  "name" : "end_use_electricity_cooling_aug",
                  "units" : "kWh",
                  "value" : 951.7305555555555
               },
               {
                  "name" : "end_use_electricity_cooling_sep",
                  "units" : "kWh",
                  "value" : 610.45833333333337
               },
               {
                  "name" : "end_use_electricity_cooling_oct",
                  "units" : "kWh",
                  "value" : 345.625
               },
               {
                  "name" : "end_use_electricity_cooling_nov",
                  "units" : "kWh",
                  "value" : 272.64333333333332
               },
               {
                  "name" : "end_use_electricity_cooling_dec",
                  "units" : "kWh",
                  "value" : 247.86138888888888
               },
               {
                  "name" : "electricity_cooling_ip",
                  "units" : "kWh",
                  "value" : 5849.6688888888893
               },
               {
                  "name" : "end_use_electricity_interior_lighting_jan",
                  "units" : "kWh",
                  "value" : 805.3555555555555
               },
               {
                  "name" : "end_use_electricity_interior_lighting_feb",
                  "units" : "kWh",
                  "value" : 734.86944444444453
               },
               {
                  "name" : "end_use_electricity_interior_lighting_mar",
                  "units" : "kWh",
                  "value" : 834.63055555555547
               },
               {
                  "name" : "end_use_electricity_interior_lighting_apr",
                  "units" : "kWh",
                  "value" : 750.3944444444445
               },
               {
                  "name" : "end_use_electricity_interior_lighting_may",
                  "units" : "kWh",
                  "value" : 834.7305555555555
               },
               {
                  "name" : "end_use_electricity_interior_lighting_jun",
                  "units" : "kWh",
                  "value" : 801.18888888888887
               },
               {
                  "name" : "end_use_electricity_interior_lighting_jul",
                  "units" : "kWh",
                  "value" : 783.92777777777781
               },
               {
                  "name" : "end_use_electricity_interior_lighting_aug",
                  "units" : "kWh",
                  "value" : 834.47777777777776
               },
               {
                  "name" : "end_use_electricity_interior_lighting_sep",
                  "units" : "kWh",
                  "value" : 780.41388888888889
               },
               {
                  "name" : "end_use_electricity_interior_lighting_oct",
                  "units" : "kWh",
                  "value" : 805.25555555555547
               },
               {
                  "name" : "end_use_electricity_interior_lighting_nov",
                  "units" : "kWh",
                  "value" : 801.79166666666663
               },
               {
                  "name" : "end_use_electricity_interior_lighting_dec",
                  "units" : "kWh",
                  "value" : 785.00833333333344
               },
               {
                  "name" : "electricity_interior_lighting_ip",
                  "units" : "kWh",
                  "value" : 9552.0444444444438
               },
               {
                  "name" : "electricity_exterior_lighting_ip",
                  "units" : "kWh",
                  "value" : 0
               },
               {
                  "name" : "end_use_electricity_interior_equipment_jan",
                  "units" : "kWh",
                  "value" : 714.28055555555557
               },
               {
                  "name" : "end_use_electricity_interior_equipment_feb",
                  "units" : "kWh",
                  "value" : 648.0194444444445
               },
               {
                  "name" : "end_use_electricity_interior_equipment_mar",
                  "units" : "kWh",
                  "value" : 728.17500000000007
               },
               {
                  "name" : "end_use_electricity_interior_equipment_apr",
                  "units" : "kWh",
                  "value" : 676.43055555555554
               },
               {
                  "name" : "end_use_electricity_interior_equipment_may",
                  "units" : "kWh",
                  "value" : 728.17500000000007
               },
               {
                  "name" : "end_use_electricity_interior_equipment_jun",
                  "units" : "kWh",
                  "value" : 701.45555555555552
               },
               {
                  "name" : "end_use_electricity_interior_equipment_jul",
                  "units" : "kWh",
                  "value" : 703.14999999999998
               },
               {
                  "name" : "end_use_electricity_interior_equipment_aug",
                  "units" : "kWh",
                  "value" : 728.17500000000007
               },
               {
                  "name" : "end_use_electricity_interior_equipment_sep",
                  "units" : "kWh",
                  "value" : 690.32500000000005
               },
               {
                  "name" : "end_use_electricity_interior_equipment_oct",
                  "units" : "kWh",
                  "value" : 714.28055555555557
               },
               {
                  "name" : "end_use_electricity_interior_equipment_nov",
                  "units" : "kWh",
                  "value" : 701.45555555555552
               },
               {
                  "name" : "end_use_electricity_interior_equipment_dec",
                  "units" : "kWh",
                  "value" : 703.14999999999998
               },
               {
                  "name" : "electricity_interior_equipment_ip",
                  "units" : "kWh",
                  "value" : 8437.072222222223
               },
               {
                  "name" : "electricity_exterior_equipment_ip",
                  "units" : "kWh",
                  "value" : 0
               },
               {
                  "name" : "end_use_electricity_fans_jan",
                  "units" : "kWh",
                  "value" : 245.19361111111112
               },
               {
                  "name" : "end_use_electricity_fans_feb",
                  "units" : "kWh",
                  "value" : 221.465
               },
               {
                  "name" : "end_use_electricity_fans_mar",
                  "units" : "kWh",
                  "value" : 246.1552777777778
               },
               {
                  "name" : "end_use_electricity_fans_apr",
                  "units" : "kWh",
                  "value" : 240.77333333333334
               },
               {
                  "name" : "end_use_electricity_fans_may",
                  "units" : "kWh",
                  "value" : 256.04777777777781
               },
               {
                  "name" : "end_use_electricity_fans_jun",
                  "units" : "kWh",
                  "value" : 257.97083333333336
               },
               {
                  "name" : "end_use_electricity_fans_jul",
                  "units" : "kWh",
                  "value" : 287.75833333333333
               },
               {
                  "name" : "end_use_electricity_fans_aug",
                  "units" : "kWh",
                  "value" : 282.7138888888889
               },
               {
                  "name" : "end_use_electricity_fans_sep",
                  "units" : "kWh",
                  "value" : 250.69277777777779
               },
               {
                  "name" : "end_use_electricity_fans_oct",
                  "units" : "kWh",
                  "value" : 246.37333333333333
               },
               {
                  "name" : "end_use_electricity_fans_nov",
                  "units" : "kWh",
                  "value" : 237.42527777777778
               },
               {
                  "name" : "end_use_electricity_fans_dec",
                  "units" : "kWh",
                  "value" : 245.19361111111112
               },
               {
                  "name" : "electricity_fans_ip",
                  "units" : "kWh",
                  "value" : 3017.7630555555556
               },
               {
                  "name" : "end_use_electricity_pumps_jan",
                  "units" : "kWh",
                  "value" : 401.53888888888889
               },
               {
                  "name" : "end_use_electricity_pumps_feb",
                  "units" : "kWh",
                  "value" : 360.42222222222227
               },
               {
                  "name" : "end_use_electricity_pumps_mar",
                  "units" : "kWh",
                  "value" : 376.5916666666667
               },
               {
                  "name" : "end_use_electricity_pumps_apr",
                  "units" : "kWh",
                  "value" : 347.92500000000001
               },
               {
                  "name" : "end_use_electricity_pumps_may",
                  "units" : "kWh",
                  "value" : 343.3388888888889
               },
               {
                  "name" : "end_use_electricity_pumps_jun",
                  "units" : "kWh",
                  "value" : 318.39166666666671
               },
               {
                  "name" : "end_use_electricity_pumps_jul",
                  "units" : "kWh",
                  "value" : 330.39722222222224
               },
               {
                  "name" : "end_use_electricity_pumps_aug",
                  "units" : "kWh",
                  "value" : 330.20277777777778
               },
               {
                  "name" : "end_use_electricity_pumps_sep",
                  "units" : "kWh",
                  "value" : 319.10833333333335
               },
               {
                  "name" : "end_use_electricity_pumps_oct",
                  "units" : "kWh",
                  "value" : 357.40555555555557
               },
               {
                  "name" : "end_use_electricity_pumps_nov",
                  "units" : "kWh",
                  "value" : 376.11666666666667
               },
               {
                  "name" : "end_use_electricity_pumps_dec",
                  "units" : "kWh",
                  "value" : 399.99166666666667
               },
               {
                  "name" : "electricity_pumps_ip",
                  "units" : "kWh",
                  "value" : 4261.4305555555557
               },
               {
                  "name" : "end_use_electricity_heat_rejection_jan",
                  "units" : "kWh",
                  "value" : 51.206388888888888
               },
               {
                  "name" : "end_use_electricity_heat_rejection_feb",
                  "units" : "kWh",
                  "value" : 40.37361111111111
               },
               {
                  "name" : "end_use_electricity_heat_rejection_mar",
                  "units" : "kWh",
                  "value" : 113.85222222222222
               },
               {
                  "name" : "end_use_electricity_heat_rejection_apr",
                  "units" : "kWh",
                  "value" : 166.08416666666665
               },
               {
                  "name" : "end_use_electricity_heat_rejection_may",
                  "units" : "kWh",
                  "value" : 227.19083333333336
               },
               {
                  "name" : "end_use_electricity_heat_rejection_jun",
                  "units" : "kWh",
                  "value" : 256.09888888888889
               },
               {
                  "name" : "end_use_electricity_heat_rejection_jul",
                  "units" : "kWh",
                  "value" : 260.31416666666667
               },
               {
                  "name" : "end_use_electricity_heat_rejection_aug",
                  "units" : "kWh",
                  "value" : 265.60750000000002
               },
               {
                  "name" : "end_use_electricity_heat_rejection_sep",
                  "units" : "kWh",
                  "value" : 257.41250000000002
               },
               {
                  "name" : "end_use_electricity_heat_rejection_oct",
                  "units" : "kWh",
                  "value" : 191.93388888888887
               },
               {
                  "name" : "end_use_electricity_heat_rejection_nov",
                  "units" : "kWh",
                  "value" : 84.847499999999997
               },
               {
                  "name" : "end_use_electricity_heat_rejection_dec",
                  "units" : "kWh",
                  "value" : 74.348055555555561
               },
               {
                  "name" : "electricity_heat_rejection_ip",
                  "units" : "kWh",
                  "value" : 1989.2697222222223
               },
               {
                  "name" : "electricity_humidification_ip",
                  "units" : "kWh",
                  "value" : 0
               },
               {
                  "name" : "electricity_heat_recovery_ip",
                  "units" : "kWh",
                  "value" : 0
               },
               {
                  "name" : "electricity_water_systems_ip",
                  "units" : "kWh",
                  "value" : 0
               },
               {
                  "name" : "electricity_refrigeration_ip",
                  "units" : "kWh",
                  "value" : 0
               },
               {
                  "name" : "electricity_generators_ip",
                  "units" : "kWh",
                  "value" : 0
               },
               {
                  "name" : "electricity_ip",
                  "units" : "kWh",
                  "value" : 33107.248888888891
               },
               {
                  "name" : "electricity_ip_jan",
                  "units" : "kWh",
                  "value" : 2472.088888888889
               },
               {
                  "name" : "electricity_ip_feb",
                  "units" : "kWh",
                  "value" : 2235.5111111111109
               },
               {
                  "name" : "electricity_ip_mar",
                  "units" : "kWh",
                  "value" : 2615.7491666666665
               },
               {
                  "name" : "electricity_ip_apr",
                  "units" : "kWh",
                  "value" : 2552.9352777777781
               },
               {
                  "name" : "electricity_ip_may",
                  "units" : "kWh",
                  "value" : 2913.3441666666668
               },
               {
                  "name" : "electricity_ip_jun",
                  "units" : "kWh",
                  "value" : 3105.2169444444444
               },
               {
                  "name" : "electricity_ip_jul",
                  "units" : "kWh",
                  "value" : 3320.3780555555554
               },
               {
                  "name" : "electricity_ip_aug",
                  "units" : "kWh",
                  "value" : 3392.9075000000003
               },
               {
                  "name" : "electricity_ip_sep",
                  "units" : "kWh",
                  "value" : 2908.4108333333334
               },
               {
                  "name" : "electricity_ip_oct",
                  "units" : "kWh",
                  "value" : 2660.8738888888893
               },
               {
                  "name" : "electricity_ip_nov",
                  "units" : "kWh",
                  "value" : 2474.2800000000002
               },
               {
                  "name" : "electricity_ip_dec",
                  "units" : "kWh",
                  "value" : 2455.5530555555556
               },
               {
                  "name" : "end_use_natural_gas_heating_jan",
                  "units" : "MBtu",
                  "value" : 17.897346337740274
               },
               {
                  "name" : "end_use_natural_gas_heating_feb",
                  "units" : "MBtu",
                  "value" : 18.20993642401961
               },
               {
                  "name" : "end_use_natural_gas_heating_mar",
                  "units" : "MBtu",
                  "value" : 13.091344847479569
               },
               {
                  "name" : "end_use_natural_gas_heating_apr",
                  "units" : "MBtu",
                  "value" : 5.8913279183890799
               },
               {
                  "name" : "end_use_natural_gas_heating_may",
                  "units" : "MBtu",
                  "value" : 3.4773135383206855
               },
               {
                  "name" : "end_use_natural_gas_heating_jun",
                  "units" : "MBtu",
                  "value" : 0.67102608666821917
               },
               {
                  "name" : "end_use_natural_gas_heating_jul",
                  "units" : "MBtu",
                  "value" : 0.4091584335824543
               },
               {
                  "name" : "end_use_natural_gas_heating_aug",
                  "units" : "MBtu",
                  "value" : 0.3390502968271189
               },
               {
                  "name" : "end_use_natural_gas_heating_sep",
                  "units" : "MBtu",
                  "value" : 1.2236224241532894
               },
               {
                  "name" : "end_use_natural_gas_heating_oct",
                  "units" : "MBtu",
                  "value" : 5.7896650540642725
               },
               {
                  "name" : "end_use_natural_gas_heating_nov",
                  "units" : "MBtu",
                  "value" : 13.942010712960771
               },
               {
                  "name" : "end_use_natural_gas_heating_dec",
                  "units" : "MBtu",
                  "value" : 18.663940824649686
               },
               {
                  "name" : "natural_gas_heating_ip",
                  "units" : "MBtu",
                  "value" : 99.605742898855027
               },
               {
                  "name" : "natural_gas_cooling_ip",
                  "units" : "MBtu",
                  "value" : 0
               },
               {
                  "name" : "natural_gas_interior_lighting_ip",
                  "units" : "MBtu",
                  "value" : 0
               },
               {
                  "name" : "natural_gas_exterior_lighting_ip",
                  "units" : "MBtu",
                  "value" : 0
               },
               {
                  "name" : "natural_gas_interior_equipment_ip",
                  "units" : "MBtu",
                  "value" : 0
               },
               {
                  "name" : "natural_gas_exterior_equipment_ip",
                  "units" : "MBtu",
                  "value" : 0
               },
               {
                  "name" : "natural_gas_fans_ip",
                  "units" : "MBtu",
                  "value" : 0
               },
               {
                  "name" : "natural_gas_pumps_ip",
                  "units" : "MBtu",
                  "value" : 0
               },
               {
                  "name" : "natural_gas_heat_rejection_ip",
                  "units" : "MBtu",
                  "value" : 0
               },
               {
                  "name" : "natural_gas_humidification_ip",
                  "units" : "MBtu",
                  "value" : 0
               },
               {
                  "name" : "natural_gas_heat_recovery_ip",
                  "units" : "MBtu",
                  "value" : 0
               },
               {
                  "name" : "natural_gas_water_systems_ip",
                  "units" : "MBtu",
                  "value" : 0
               },
               {
                  "name" : "natural_gas_refrigeration_ip",
                  "units" : "MBtu",
                  "value" : 0
               },
               {
                  "name" : "natural_gas_generators_ip",
                  "units" : "MBtu",
                  "value" : 0
               },
               {
                  "name" : "natural_gas_ip",
                  "units" : "MBtu",
                  "value" : 99.605742898855027
               },
               {
                  "name" : "natural_gas_ip_jan",
                  "units" : "MBtu",
                  "value" : 17.897346337740274
               },
               {
                  "name" : "natural_gas_ip_feb",
                  "units" : "MBtu",
                  "value" : 18.20993642401961
               },
               {
                  "name" : "natural_gas_ip_mar",
                  "units" : "MBtu",
                  "value" : 13.091344847479569
               },
               {
                  "name" : "natural_gas_ip_apr",
                  "units" : "MBtu",
                  "value" : 5.8913279183890799
               },
               {
                  "name" : "natural_gas_ip_may",
                  "units" : "MBtu",
                  "value" : 3.4773135383206855
               },
               {
                  "name" : "natural_gas_ip_jun",
                  "units" : "MBtu",
                  "value" : 0.67102608666821917
               },
               {
                  "name" : "natural_gas_ip_jul",
                  "units" : "MBtu",
                  "value" : 0.4091584335824543
               },
               {
                  "name" : "natural_gas_ip_aug",
                  "units" : "MBtu",
                  "value" : 0.3390502968271189
               },
               {
                  "name" : "natural_gas_ip_sep",
                  "units" : "MBtu",
                  "value" : 1.2236224241532894
               },
               {
                  "name" : "natural_gas_ip_oct",
                  "units" : "MBtu",
                  "value" : 5.7896650540642725
               },
               {
                  "name" : "natural_gas_ip_nov",
                  "units" : "MBtu",
                  "value" : 13.942010712960771
               },
               {
                  "name" : "natural_gas_ip_dec",
                  "units" : "MBtu",
                  "value" : 18.663940824649686
               },
               {
                  "name" : "additional_fuel_heating_ip",
                  "units" : "MBtu",
                  "value" : 0
               },
               {
                  "name" : "additional_fuel_cooling_ip",
                  "units" : "MBtu",
                  "value" : 0
               },
               {
                  "name" : "additional_fuel_interior_lighting_ip",
                  "units" : "MBtu",
                  "value" : 0
               },
               {
                  "name" : "additional_fuel_exterior_lighting_ip",
                  "units" : "MBtu",
                  "value" : 0
               },
               {
                  "name" : "additional_fuel_interior_equipment_ip",
                  "units" : "MBtu",
                  "value" : 0
               },
               {
                  "name" : "additional_fuel_exterior_equipment_ip",
                  "units" : "MBtu",
                  "value" : 0
               },
               {
                  "name" : "additional_fuel_fans_ip",
                  "units" : "MBtu",
                  "value" : 0
               },
               {
                  "name" : "additional_fuel_pumps_ip",
                  "units" : "MBtu",
                  "value" : 0
               },
               {
                  "name" : "additional_fuel_heat_rejection_ip",
                  "units" : "MBtu",
                  "value" : 0
               },
               {
                  "name" : "additional_fuel_humidification_ip",
                  "units" : "MBtu",
                  "value" : 0
               },
               {
                  "name" : "additional_fuel_heat_recovery_ip",
                  "units" : "MBtu",
                  "value" : 0
               },
               {
                  "name" : "additional_fuel_water_systems_ip",
                  "units" : "MBtu",
                  "value" : 0
               },
               {
                  "name" : "additional_fuel_refrigeration_ip",
                  "units" : "MBtu",
                  "value" : 0
               },
               {
                  "name" : "additional_fuel_generators_ip",
                  "units" : "MBtu",
                  "value" : 0
               },
               {
                  "name" : "additional_fuel_ip",
                  "units" : "MBtu",
                  "value" : 0
               },
               {
                  "name" : "additional_fuel_ip_jan",
                  "units" : "MBtu",
                  "value" : 0
               },
               {
                  "name" : "additional_fuel_ip_feb",
                  "units" : "MBtu",
                  "value" : 0
               },
               {
                  "name" : "additional_fuel_ip_mar",
                  "units" : "MBtu",
                  "value" : 0
               },
               {
                  "name" : "additional_fuel_ip_apr",
                  "units" : "MBtu",
                  "value" : 0
               },
               {
                  "name" : "additional_fuel_ip_may",
                  "units" : "MBtu",
                  "value" : 0
               },
               {
                  "name" : "additional_fuel_ip_jun",
                  "units" : "MBtu",
                  "value" : 0
               },
               {
                  "name" : "additional_fuel_ip_jul",
                  "units" : "MBtu",
                  "value" : 0
               },
               {
                  "name" : "additional_fuel_ip_aug",
                  "units" : "MBtu",
                  "value" : 0
               },
               {
                  "name" : "additional_fuel_ip_sep",
                  "units" : "MBtu",
                  "value" : 0
               },
               {
                  "name" : "additional_fuel_ip_oct",
                  "units" : "MBtu",
                  "value" : 0
               },
               {
                  "name" : "additional_fuel_ip_nov",
                  "units" : "MBtu",
                  "value" : 0
               },
               {
                  "name" : "additional_fuel_ip_dec",
                  "units" : "MBtu",
                  "value" : 0
               },
               {
                  "name" : "district_cooling_heating_ip",
                  "units" : "MBtu",
                  "value" : 0
               },
               {
                  "name" : "district_cooling_cooling_ip",
                  "units" : "MBtu",
                  "value" : 0
               },
               {
                  "name" : "district_cooling_interior_lighting_ip",
                  "units" : "MBtu",
                  "value" : 0
               },
               {
                  "name" : "district_cooling_exterior_lighting_ip",
                  "units" : "MBtu",
                  "value" : 0
               },
               {
                  "name" : "district_cooling_interior_equipment_ip",
                  "units" : "MBtu",
                  "value" : 0
               },
               {
                  "name" : "district_cooling_exterior_equipment_ip",
                  "units" : "MBtu",
                  "value" : 0
               },
               {
                  "name" : "district_cooling_fans_ip",
                  "units" : "MBtu",
                  "value" : 0
               },
               {
                  "name" : "district_cooling_pumps_ip",
                  "units" : "MBtu",
                  "value" : 0
               },
               {
                  "name" : "district_cooling_heat_rejection_ip",
                  "units" : "MBtu",
                  "value" : 0
               },
               {
                  "name" : "district_cooling_humidification_ip",
                  "units" : "MBtu",
                  "value" : 0
               },
               {
                  "name" : "district_cooling_heat_recovery_ip",
                  "units" : "MBtu",
                  "value" : 0
               },
               {
                  "name" : "district_cooling_water_systems_ip",
                  "units" : "MBtu",
                  "value" : 0
               },
               {
                  "name" : "district_cooling_refrigeration_ip",
                  "units" : "MBtu",
                  "value" : 0
               },
               {
                  "name" : "district_cooling_generators_ip",
                  "units" : "MBtu",
                  "value" : 0
               },
               {
                  "name" : "district_cooling_ip",
                  "units" : "MBtu",
                  "value" : 0
               },
               {
                  "name" : "district_cooling_ip_jan",
                  "units" : "MBtu",
                  "value" : 0
               },
               {
                  "name" : "district_cooling_ip_feb",
                  "units" : "MBtu",
                  "value" : 0
               },
               {
                  "name" : "district_cooling_ip_mar",
                  "units" : "MBtu",
                  "value" : 0
               },
               {
                  "name" : "district_cooling_ip_apr",
                  "units" : "MBtu",
                  "value" : 0
               },
               {
                  "name" : "district_cooling_ip_may",
                  "units" : "MBtu",
                  "value" : 0
               },
               {
                  "name" : "district_cooling_ip_jun",
                  "units" : "MBtu",
                  "value" : 0
               },
               {
                  "name" : "district_cooling_ip_jul",
                  "units" : "MBtu",
                  "value" : 0
               },
               {
                  "name" : "district_cooling_ip_aug",
                  "units" : "MBtu",
                  "value" : 0
               },
               {
                  "name" : "district_cooling_ip_sep",
                  "units" : "MBtu",
                  "value" : 0
               },
               {
                  "name" : "district_cooling_ip_oct",
                  "units" : "MBtu",
                  "value" : 0
               },
               {
                  "name" : "district_cooling_ip_nov",
                  "units" : "MBtu",
                  "value" : 0
               },
               {
                  "name" : "district_cooling_ip_dec",
                  "units" : "MBtu",
                  "value" : 0
               },
               {
                  "name" : "district_heating_heating_ip",
                  "units" : "MBtu",
                  "value" : 0
               },
               {
                  "name" : "district_heating_cooling_ip",
                  "units" : "MBtu",
                  "value" : 0
               },
               {
                  "name" : "district_heating_interior_lighting_ip",
                  "units" : "MBtu",
                  "value" : 0
               },
               {
                  "name" : "district_heating_exterior_lighting_ip",
                  "units" : "MBtu",
                  "value" : 0
               },
               {
                  "name" : "district_heating_interior_equipment_ip",
                  "units" : "MBtu",
                  "value" : 0
               },
               {
                  "name" : "district_heating_exterior_equipment_ip",
                  "units" : "MBtu",
                  "value" : 0
               },
               {
                  "name" : "district_heating_fans_ip",
                  "units" : "MBtu",
                  "value" : 0
               },
               {
                  "name" : "district_heating_pumps_ip",
                  "units" : "MBtu",
                  "value" : 0
               },
               {
                  "name" : "district_heating_heat_rejection_ip",
                  "units" : "MBtu",
                  "value" : 0
               },
               {
                  "name" : "district_heating_humidification_ip",
                  "units" : "MBtu",
                  "value" : 0
               },
               {
                  "name" : "district_heating_heat_recovery_ip",
                  "units" : "MBtu",
                  "value" : 0
               },
               {
                  "name" : "district_heating_water_systems_ip",
                  "units" : "MBtu",
                  "value" : 0
               },
               {
                  "name" : "district_heating_refrigeration_ip",
                  "units" : "MBtu",
                  "value" : 0
               },
               {
                  "name" : "district_heating_generators_ip",
                  "units" : "MBtu",
                  "value" : 0
               },
               {
                  "name" : "district_heating_ip",
                  "units" : "MBtu",
                  "value" : 0
               },
               {
                  "name" : "district_heating_ip_jan",
                  "units" : "MBtu",
                  "value" : 0
               },
               {
                  "name" : "district_heating_ip_feb",
                  "units" : "MBtu",
                  "value" : 0
               },
               {
                  "name" : "district_heating_ip_mar",
                  "units" : "MBtu",
                  "value" : 0
               },
               {
                  "name" : "district_heating_ip_apr",
                  "units" : "MBtu",
                  "value" : 0
               },
               {
                  "name" : "district_heating_ip_may",
                  "units" : "MBtu",
                  "value" : 0
               },
               {
                  "name" : "district_heating_ip_jun",
                  "units" : "MBtu",
                  "value" : 0
               },
               {
                  "name" : "district_heating_ip_jul",
                  "units" : "MBtu",
                  "value" : 0
               },
               {
                  "name" : "district_heating_ip_aug",
                  "units" : "MBtu",
                  "value" : 0
               },
               {
                  "name" : "district_heating_ip_sep",
                  "units" : "MBtu",
                  "value" : 0
               },
               {
                  "name" : "district_heating_ip_oct",
                  "units" : "MBtu",
                  "value" : 0
               },
               {
                  "name" : "district_heating_ip_nov",
                  "units" : "MBtu",
                  "value" : 0
               },
               {
                  "name" : "district_heating_ip_dec",
                  "units" : "MBtu",
                  "value" : 0
               },
               {
                  "name" : "water_heating_ip",
                  "units" : "MBtu",
                  "value" : 0
               },
               {
                  "name" : "water_cooling_ip",
                  "units" : "MBtu",
                  "value" : 0
               },
               {
                  "name" : "water_interior_lighting_ip",
                  "units" : "MBtu",
                  "value" : 0
               },
               {
                  "name" : "water_exterior_lighting_ip",
                  "units" : "MBtu",
                  "value" : 0
               },
               {
                  "name" : "water_interior_equipment_ip",
                  "units" : "MBtu",
                  "value" : 0
               },
               {
                  "name" : "water_exterior_equipment_ip",
                  "units" : "MBtu",
                  "value" : 0
               },
               {
                  "name" : "water_fans_ip",
                  "units" : "MBtu",
                  "value" : 0
               },
               {
                  "name" : "water_pumps_ip",
                  "units" : "MBtu",
                  "value" : 0
               },
               {
                  "name" : "water_heat_rejection_ip",
                  "units" : "MBtu",
                  "value" : 0
               },
               {
                  "name" : "water_humidification_ip",
                  "units" : "MBtu",
                  "value" : 0
               },
               {
                  "name" : "water_heat_recovery_ip",
                  "units" : "MBtu",
                  "value" : 0
               },
               {
                  "name" : "water_water_systems_ip",
                  "units" : "MBtu",
                  "value" : 0
               },
               {
                  "name" : "water_refrigeration_ip",
                  "units" : "MBtu",
                  "value" : 0
               },
               {
                  "name" : "water_generators_ip",
                  "units" : "MBtu",
                  "value" : 0
               },
               {
                  "name" : "water_ip",
                  "units" : "MBtu",
                  "value" : 0
               },
               {
                  "name" : "water_ip_jan",
                  "units" : "MBtu",
                  "value" : 0
               },
               {
                  "name" : "water_ip_feb",
                  "units" : "MBtu",
                  "value" : 0
               },
               {
                  "name" : "water_ip_mar",
                  "units" : "MBtu",
                  "value" : 0
               },
               {
                  "name" : "water_ip_apr",
                  "units" : "MBtu",
                  "value" : 0
               },
               {
                  "name" : "water_ip_may",
                  "units" : "MBtu",
                  "value" : 0
               },
               {
                  "name" : "water_ip_jun",
                  "units" : "MBtu",
                  "value" : 0
               },
               {
                  "name" : "water_ip_jul",
                  "units" : "MBtu",
                  "value" : 0
               },
               {
                  "name" : "water_ip_aug",
                  "units" : "MBtu",
                  "value" : 0
               },
               {
                  "name" : "water_ip_sep",
                  "units" : "MBtu",
                  "value" : 0
               },
               {
                  "name" : "water_ip_oct",
                  "units" : "MBtu",
                  "value" : 0
               },
               {
                  "name" : "water_ip_nov",
                  "units" : "MBtu",
                  "value" : 0
               },
               {
                  "name" : "water_ip_dec",
                  "units" : "MBtu",
                  "value" : 0
               },
               {
                  "name" : "fuel_oil_1_heating_ip",
                  "units" : "MBtu",
                  "value" : 0
               },
               {
                  "name" : "fuel_oil_1_cooling_ip",
                  "units" : "MBtu",
                  "value" : 0
               },
               {
                  "name" : "fuel_oil_1_interior_lighting_ip",
                  "units" : "MBtu",
                  "value" : 0
               },
               {
                  "name" : "fuel_oil_1_exterior_lighting_ip",
                  "units" : "MBtu",
                  "value" : 0
               },
               {
                  "name" : "fuel_oil_1_interior_equipment_ip",
                  "units" : "MBtu",
                  "value" : 0
               },
               {
                  "name" : "fuel_oil_1_exterior_equipment_ip",
                  "units" : "MBtu",
                  "value" : 0
               },
               {
                  "name" : "fuel_oil_1_fans_ip",
                  "units" : "MBtu",
                  "value" : 0
               },
               {
                  "name" : "fuel_oil_1_pumps_ip",
                  "units" : "MBtu",
                  "value" : 0
               },
               {
                  "name" : "fuel_oil_1_heat_rejection_ip",
                  "units" : "MBtu",
                  "value" : 0
               },
               {
                  "name" : "fuel_oil_1_humidification_ip",
                  "units" : "MBtu",
                  "value" : 0
               },
               {
                  "name" : "fuel_oil_1_heat_recovery_ip",
                  "units" : "MBtu",
                  "value" : 0
               },
               {
                  "name" : "fuel_oil_1_water_systems_ip",
                  "units" : "MBtu",
                  "value" : 0
               },
               {
                  "name" : "fuel_oil_1_refrigeration_ip",
                  "units" : "MBtu",
                  "value" : 0
               },
               {
                  "name" : "fuel_oil_1_generators_ip",
                  "units" : "MBtu",
                  "value" : 0
               },
               {
                  "name" : "fuel_oil_1_ip",
                  "units" : "MBtu",
                  "value" : 0
               },
               {
                  "name" : "fuel_oil_1_ip_jan",
                  "units" : "MBtu",
                  "value" : 0
               },
               {
                  "name" : "fuel_oil_1_ip_feb",
                  "units" : "MBtu",
                  "value" : 0
               },
               {
                  "name" : "fuel_oil_1_ip_mar",
                  "units" : "MBtu",
                  "value" : 0
               },
               {
                  "name" : "fuel_oil_1_ip_apr",
                  "units" : "MBtu",
                  "value" : 0
               },
               {
                  "name" : "fuel_oil_1_ip_may",
                  "units" : "MBtu",
                  "value" : 0
               },
               {
                  "name" : "fuel_oil_1_ip_jun",
                  "units" : "MBtu",
                  "value" : 0
               },
               {
                  "name" : "fuel_oil_1_ip_jul",
                  "units" : "MBtu",
                  "value" : 0
               },
               {
                  "name" : "fuel_oil_1_ip_aug",
                  "units" : "MBtu",
                  "value" : 0
               },
               {
                  "name" : "fuel_oil_1_ip_sep",
                  "units" : "MBtu",
                  "value" : 0
               },
               {
                  "name" : "fuel_oil_1_ip_oct",
                  "units" : "MBtu",
                  "value" : 0
               },
               {
                  "name" : "fuel_oil_1_ip_nov",
                  "units" : "MBtu",
                  "value" : 0
               },
               {
                  "name" : "fuel_oil_1_ip_dec",
                  "units" : "MBtu",
                  "value" : 0
               },
               {
                  "name" : "fuel_oil_2_heating_ip",
                  "units" : "MBtu",
                  "value" : 0
               },
               {
                  "name" : "fuel_oil_2_cooling_ip",
                  "units" : "MBtu",
                  "value" : 0
               },
               {
                  "name" : "fuel_oil_2_interior_lighting_ip",
                  "units" : "MBtu",
                  "value" : 0
               },
               {
                  "name" : "fuel_oil_2_exterior_lighting_ip",
                  "units" : "MBtu",
                  "value" : 0
               },
               {
                  "name" : "fuel_oil_2_interior_equipment_ip",
                  "units" : "MBtu",
                  "value" : 0
               },
               {
                  "name" : "fuel_oil_2_exterior_equipment_ip",
                  "units" : "MBtu",
                  "value" : 0
               },
               {
                  "name" : "fuel_oil_2_fans_ip",
                  "units" : "MBtu",
                  "value" : 0
               },
               {
                  "name" : "fuel_oil_2_pumps_ip",
                  "units" : "MBtu",
                  "value" : 0
               },
               {
                  "name" : "fuel_oil_2_heat_rejection_ip",
                  "units" : "MBtu",
                  "value" : 0
               },
               {
                  "name" : "fuel_oil_2_humidification_ip",
                  "units" : "MBtu",
                  "value" : 0
               },
               {
                  "name" : "fuel_oil_2_heat_recovery_ip",
                  "units" : "MBtu",
                  "value" : 0
               },
               {
                  "name" : "fuel_oil_2_water_systems_ip",
                  "units" : "MBtu",
                  "value" : 0
               },
               {
                  "name" : "fuel_oil_2_refrigeration_ip",
                  "units" : "MBtu",
                  "value" : 0
               },
               {
                  "name" : "fuel_oil_2_generators_ip",
                  "units" : "MBtu",
                  "value" : 0
               },
               {
                  "name" : "fuel_oil_2_ip",
                  "units" : "MBtu",
                  "value" : 0
               },
               {
                  "name" : "fuel_oil_2_ip_jan",
                  "units" : "MBtu",
                  "value" : 0
               },
               {
                  "name" : "fuel_oil_2_ip_feb",
                  "units" : "MBtu",
                  "value" : 0
               },
               {
                  "name" : "fuel_oil_2_ip_mar",
                  "units" : "MBtu",
                  "value" : 0
               },
               {
                  "name" : "fuel_oil_2_ip_apr",
                  "units" : "MBtu",
                  "value" : 0
               },
               {
                  "name" : "fuel_oil_2_ip_may",
                  "units" : "MBtu",
                  "value" : 0
               },
               {
                  "name" : "fuel_oil_2_ip_jun",
                  "units" : "MBtu",
                  "value" : 0
               },
               {
                  "name" : "fuel_oil_2_ip_jul",
                  "units" : "MBtu",
                  "value" : 0
               },
               {
                  "name" : "fuel_oil_2_ip_aug",
                  "units" : "MBtu",
                  "value" : 0
               },
               {
                  "name" : "fuel_oil_2_ip_sep",
                  "units" : "MBtu",
                  "value" : 0
               },
               {
                  "name" : "fuel_oil_2_ip_oct",
                  "units" : "MBtu",
                  "value" : 0
               },
               {
                  "name" : "fuel_oil_2_ip_nov",
                  "units" : "MBtu",
                  "value" : 0
               },
               {
[...]
                  "units" : "MBtu",
                  "value" : 0
               },
               {
                  "name" : "diesel_interior_lighting_ip",
                  "units" : "MBtu",
                  "value" : 0
               },
               {
                  "name" : "diesel_exterior_lighting_ip",
                  "units" : "MBtu",
                  "value" : 0
               },
               {
                  "name" : "diesel_interior_equipment_ip",
                  "units" : "MBtu",
                  "value" : 0
               },
               {
                  "name" : "diesel_exterior_equipment_ip",
                  "units" : "MBtu",
                  "value" : 0
               },
               {
                  "name" : "diesel_fans_ip",
                  "units" : "MBtu",
                  "value" : 0
               },
               {
                  "name" : "diesel_pumps_ip",
                  "units" : "MBtu",
                  "value" : 0
               },
               {
                  "name" : "diesel_heat_rejection_ip",
                  "units" : "MBtu",
                  "value" : 0
               },
               {
                  "name" : "diesel_humidification_ip",
                  "units" : "MBtu",
                  "value" : 0
               },
               {
                  "name" : "diesel_heat_recovery_ip",
                  "units" : "MBtu",
                  "value" : 0
               },
               {
                  "name" : "diesel_water_systems_ip",
                  "units" : "MBtu",
                  "value" : 0
               },
               {
                  "name" : "diesel_refrigeration_ip",
                  "units" : "MBtu",
                  "value" : 0
               },
               {
                  "name" : "diesel_generators_ip",
                  "units" : "MBtu",
                  "value" : 0
               },
               {
                  "name" : "diesel_ip",
                  "units" : "MBtu",
                  "value" : 0
               },
               {
                  "name" : "diesel_ip_jan",
                  "units" : "MBtu",
                  "value" : 0
               },
               {
                  "name" : "diesel_ip_feb",
                  "units" : "MBtu",
                  "value" : 0
               },
               {
                  "name" : "diesel_ip_mar",
                  "units" : "MBtu",
                  "value" : 0
               },
               {
                  "name" : "diesel_ip_apr",
                  "units" : "MBtu",
                  "value" : 0
               },
               {
                  "name" : "diesel_ip_may",
                  "units" : "MBtu",
                  "value" : 0
               },
               {
                  "name" : "diesel_ip_jun",
                  "units" : "MBtu",
                  "value" : 0
               },
               {
                  "name" : "diesel_ip_jul",
                  "units" : "MBtu",
                  "value" : 0
               },
               {
                  "name" : "diesel_ip_aug",
                  "units" : "MBtu",
                  "value" : 0
               },
               {
                  "name" : "diesel_ip_sep",
                  "units" : "MBtu",
                  "value" : 0
               },
               {
                  "name" : "diesel_ip_oct",
                  "units" : "MBtu",
                  "value" : 0
               },
               {
                  "name" : "diesel_ip_nov",
                  "units" : "MBtu",
                  "value" : 0
               },
               {
                  "name" : "diesel_ip_dec",
                  "units" : "MBtu",
                  "value" : 0
               },
               {
                  "name" : "gasoline_heating_ip",
                  "units" : "MBtu",
                  "value" : 0
               },
               {
                  "name" : "gasoline_cooling_ip",
                  "units" : "MBtu",
                  "value" : 0
               },
               {
                  "name" : "gasoline_interior_lighting_ip",
                  "units" : "MBtu",
                  "value" : 0
               },
               {
                  "name" : "gasoline_exterior_lighting_ip",
                  "units" : "MBtu",
                  "value" : 0
               },
               {
                  "name" : "gasoline_interior_equipment_ip",
                  "units" : "MBtu",
                  "value" : 0
               },
               {
                  "name" : "gasoline_exterior_equipment_ip",
                  "units" : "MBtu",
                  "value" : 0
               },
               {
                  "name" : "gasoline_fans_ip",
                  "units" : "MBtu",
                  "value" : 0
               },
               {
                  "name" : "gasoline_pumps_ip",
                  "units" : "MBtu",
                  "value" : 0
               },
               {
                  "name" : "gasoline_heat_rejection_ip",
                  "units" : "MBtu",
                  "value" : 0
               },
               {
                  "name" : "gasoline_humidification_ip",
                  "units" : "MBtu",
                  "value" : 0
               },
               {
                  "name" : "gasoline_heat_recovery_ip",
                  "units" : "MBtu",
                  "value" : 0
               },
               {
                  "name" : "gasoline_water_systems_ip",
                  "units" : "MBtu",
                  "value" : 0
               },
               {
                  "name" : "gasoline_refrigeration_ip",
                  "units" : "MBtu",
                  "value" : 0
               },
               {
                  "name" : "gasoline_generators_ip",
                  "units" : "MBtu",
                  "value" : 0
               },
               {
                  "name" : "gasoline_ip",
                  "units" : "MBtu",
                  "value" : 0
               },
               {
                  "name" : "gasoline_ip_jan",
                  "units" : "MBtu",
                  "value" : 0
               },
               {
                  "name" : "gasoline_ip_feb",
                  "units" : "MBtu",
                  "value" : 0
               },
               {
                  "name" : "gasoline_ip_mar",
                  "units" : "MBtu",
                  "value" : 0
               },
               {
                  "name" : "gasoline_ip_apr",
                  "units" : "MBtu",
                  "value" : 0
               },
               {
                  "name" : "gasoline_ip_may",
                  "units" : "MBtu",
                  "value" : 0
               },
               {
                  "name" : "gasoline_ip_jun",
                  "units" : "MBtu",
                  "value" : 0
               },
               {
                  "name" : "gasoline_ip_jul",
                  "units" : "MBtu",
                  "value" : 0
               },
               {
                  "name" : "gasoline_ip_aug",
                  "units" : "MBtu",
                  "value" : 0
               },
               {
                  "name" : "gasoline_ip_sep",
                  "units" : "MBtu",
                  "value" : 0
               },
               {
                  "name" : "gasoline_ip_oct",
                  "units" : "MBtu",
                  "value" : 0
               },
               {
                  "name" : "gasoline_ip_nov",
                  "units" : "MBtu",
                  "value" : 0
               },
               {
                  "name" : "gasoline_ip_dec",
                  "units" : "MBtu",
                  "value" : 0
               },
               {
                  "name" : "other_fuel_1_heating_ip",
                  "units" : "MBtu",
                  "value" : 0
               },
               {
                  "name" : "other_fuel_1_cooling_ip",
                  "units" : "MBtu",
                  "value" : 0
               },
               {
                  "name" : "other_fuel_1_interior_lighting_ip",
                  "units" : "MBtu",
                  "value" : 0
               },
               {
                  "name" : "other_fuel_1_exterior_lighting_ip",
                  "units" : "MBtu",
                  "value" : 0
               },
               {
                  "name" : "other_fuel_1_interior_equipment_ip",
                  "units" : "MBtu",
                  "value" : 0
               },
               {
                  "name" : "other_fuel_1_exterior_equipment_ip",
                  "units" : "MBtu",
                  "value" : 0
               },
               {
                  "name" : "other_fuel_1_fans_ip",
                  "units" : "MBtu",
                  "value" : 0
               },
               {
                  "name" : "other_fuel_1_pumps_ip",
                  "units" : "MBtu",
                  "value" : 0
               },
               {
                  "name" : "other_fuel_1_heat_rejection_ip",
                  "units" : "MBtu",
                  "value" : 0
               },
               {
                  "name" : "other_fuel_1_humidification_ip",
                  "units" : "MBtu",
                  "value" : 0
               },
               {
                  "name" : "other_fuel_1_heat_recovery_ip",
                  "units" : "MBtu",
                  "value" : 0
               },
               {
                  "name" : "other_fuel_1_water_systems_ip",
                  "units" : "MBtu",
                  "value" : 0
               },
               {
                  "name" : "other_fuel_1_refrigeration_ip",
                  "units" : "MBtu",
                  "value" : 0
               },
               {
                  "name" : "other_fuel_1_generators_ip",
                  "units" : "MBtu",
                  "value" : 0
               },
               {
                  "name" : "other_fuel_1_ip",
                  "units" : "MBtu",
                  "value" : 0
               },
               {
                  "name" : "other_fuel_1_ip_jan",
                  "units" : "MBtu",
                  "value" : 0
               },
               {
                  "name" : "other_fuel_1_ip_feb",
                  "units" : "MBtu",
                  "value" : 0
               },
               {
                  "name" : "other_fuel_1_ip_mar",
                  "units" : "MBtu",
                  "value" : 0
               },
               {
                  "name" : "other_fuel_1_ip_apr",
                  "units" : "MBtu",
                  "value" : 0
               },
               {
                  "name" : "other_fuel_1_ip_may",
                  "units" : "MBtu",
                  "value" : 0
               },
               {
                  "name" : "other_fuel_1_ip_jun",
                  "units" : "MBtu",
                  "value" : 0
               },
               {
                  "name" : "other_fuel_1_ip_jul",
                  "units" : "MBtu",
                  "value" : 0
               },
               {
                  "name" : "other_fuel_1_ip_aug",
                  "units" : "MBtu",
                  "value" : 0
               },
               {
                  "name" : "other_fuel_1_ip_sep",
                  "units" : "MBtu",
                  "value" : 0
               },
               {
                  "name" : "other_fuel_1_ip_oct",
                  "units" : "MBtu",
                  "value" : 0
               },
               {
                  "name" : "other_fuel_1_ip_nov",
                  "units" : "MBtu",
                  "value" : 0
               },
               {
                  "name" : "other_fuel_1_ip_dec",
                  "units" : "MBtu",
                  "value" : 0
               },
               {
                  "name" : "other_fuel_2_heating_ip",
                  "units" : "MBtu",
                  "value" : 0
               },
               {
                  "name" : "other_fuel_2_cooling_ip",
                  "units" : "MBtu",
                  "value" : 0
               },
               {
                  "name" : "other_fuel_2_interior_lighting_ip",
                  "units" : "MBtu",
                  "value" : 0
               },
               {
                  "name" : "other_fuel_2_exterior_lighting_ip",
                  "units" : "MBtu",
                  "value" : 0
               },
               {
                  "name" : "other_fuel_2_interior_equipment_ip",
                  "units" : "MBtu",
                  "value" : 0
               },
               {
                  "name" : "other_fuel_2_exterior_equipment_ip",
                  "units" : "MBtu",
                  "value" : 0
               },
               {
                  "name" : "other_fuel_2_fans_ip",
                  "units" : "MBtu",
                  "value" : 0
               },
               {
                  "name" : "other_fuel_2_pumps_ip",
                  "units" : "MBtu",
                  "value" : 0
               },
               {
                  "name" : "other_fuel_2_heat_rejection_ip",
                  "units" : "MBtu",
                  "value" : 0
               },
               {
                  "name" : "other_fuel_2_humidification_ip",
                  "units" : "MBtu",
                  "value" : 0
               },
               {
                  "name" : "other_fuel_2_heat_recovery_ip",
                  "units" : "MBtu",
                  "value" : 0
               },
               {
                  "name" : "other_fuel_2_water_systems_ip",
                  "units" : "MBtu",
                  "value" : 0
               },
               {
                  "name" : "other_fuel_2_refrigeration_ip",
                  "units" : "MBtu",
                  "value" : 0
               },
               {
                  "name" : "other_fuel_2_generators_ip",
                  "units" : "MBtu",
                  "value" : 0
               },
               {
                  "name" : "other_fuel_2_ip",
                  "units" : "MBtu",
                  "value" : 0
               },
               {
                  "name" : "other_fuel_2_ip_jan",
                  "units" : "MBtu",
                  "value" : 0
               },
               {
                  "name" : "other_fuel_2_ip_feb",
                  "units" : "MBtu",
                  "value" : 0
               },
               {
                  "name" : "other_fuel_2_ip_mar",
                  "units" : "MBtu",
                  "value" : 0
               },
               {
                  "name" : "other_fuel_2_ip_apr",
                  "units" : "MBtu",
                  "value" : 0
               },
               {
                  "name" : "other_fuel_2_ip_may",
                  "units" : "MBtu",
                  "value" : 0
               },
               {
                  "name" : "other_fuel_2_ip_jun",
                  "units" : "MBtu",
                  "value" : 0
               },
               {
                  "name" : "other_fuel_2_ip_jul",
                  "units" : "MBtu",
                  "value" : 0
               },
               {
                  "name" : "other_fuel_2_ip_aug",
                  "units" : "MBtu",
                  "value" : 0
               },
               {
                  "name" : "other_fuel_2_ip_sep",
                  "units" : "MBtu",
                  "value" : 0
               },
               {
                  "name" : "other_fuel_2_ip_oct",
                  "units" : "MBtu",
                  "value" : 0
               },
               {
                  "name" : "other_fuel_2_ip_nov",
                  "units" : "MBtu",
                  "value" : 0
               },
               {
                  "name" : "other_fuel_2_ip_dec",
                  "units" : "MBtu",
                  "value" : 0
               },
               {
                  "name" : "exterior_roof",
                  "units" : "ft^2",
                  "value" : 4305.5641666838892
               },
               {
                  "name" : "exterior_wall",
                  "units" : "ft^2",
                  "value" : 2475.6993958432358
               },
               {
                  "name" : "exterior_door",
                  "units" : "ft^2",
                  "value" : 0.37161216000000002
               },
               {
                  "name" : "exterior_window",
                  "units" : "ft^2",
                  "value" : 0.55741824000000006
               },
               {
                  "name" : "gross_window_wall_ratio",
                  "units" : "%",
                  "value" : 2.5
               },
               {
                  "name" : "gross_window_wall_ratio_conditioned",
                  "units" : "%",
                  "value" : 2.5
               },
               {
                  "name" : "skylight_roof_ratio",
                  "units" : "%",
                  "value" : 0
               },
               {
                  "name" : "space_type_ashrae_189_1_2009_climate_zone_4_8_medium_office",
                  "units" : "ft^2",
                  "value" : 1076.3910416709723
               },
               {
                  "name" : "space_type_space_type_1",
                  "units" : "ft^2",
                  "value" : 2152.7820833419446
               },
               {
                  "name" : "space_type_no_space_type",
                  "units" : "ft^2",
                  "value" : 1076.3910416709723
               },
               {
                  "name" : "zone_max_hours_over_70_rh",
                  "units" : "hr",
                  "value" : 2650
               },
               {
                  "name" : "zone_max_hours_over_55_rh",
                  "units" : "hr",
                  "value" : 6731
               },
               {
                  "name" : "num_zones_x_hours_over_70",
                  "units" : "zones",
                  "value" : 1
               },
               {
                  "name" : "num_zones_x_hours_over_55",
                  "units" : "zones",
                  "value" : 2
               },
               {
                  "name" : "inflation_approach",
                  "value" : "Constant Dollar"
               },
               {
                  "name" : "analysis_length",
                  "units" : "yrs",
                  "value" : 25
               },
               {
                  "name" : "number_of_measures_with_warnings",
                  "value" : 0
               },
               {
                  "name" : "number_warnings",
                  "value" : 0
               },
               {
                  "name" : "annual_peak_electric_demand",
                  "units" : "kW",
                  "value" : 10.615270000000001
               },
               {
                  "name" : "first_year_capital_cost",
                  "units" : "$",
                  "value" : 129166.92999999999
               },
               {
                  "name" : "annual_utility_cost",
                  "units" : "$",
                  "value" : 21070.959999999999
               },
               {
                  "name" : "total_lifecycle_cost",
                  "units" : "$",
                  "value" : 569288.01000000001
               }
            ],
            "step_warnings" : []
         }
      }
   ],
   "updated_at" : "20200207T091421Z",
   "weather_file" : "../../USA_CO_Golden-NREL.724666_TMY3.epw"
}
